# generated using pymatgen
data_CuReO4
_symmetry_space_group_name_H-M   I4_1cd
_cell_length_a   13.84526000
_cell_length_b   13.84526000
_cell_length_c   7.82860000
_cell_angle_alpha   90.00000000
_cell_angle_beta   90.00000000
_cell_angle_gamma   90.00000000
_symmetry_Int_Tables_number   110
_chemical_formula_structural   CuReO4
_chemical_formula_sum   'Cu16 Re16 O64'
_cell_volume   1500.67391987
_cell_formula_units_Z   16
loop_
 _symmetry_equiv_pos_site_id
 _symmetry_equiv_pos_as_xyz
  1  'x, y, z'
  2  '-y, x+1/2, z+1/4'
  3  '-x+1/2, -y+1/2, z+1/2'
  4  'y+1/2, -x, z+3/4'
  5  '-x, y, z+1/2'
  6  'y, x+1/2, z+3/4'
  7  'x+1/2, -y+1/2, z'
  8  '-y+1/2, -x, z+1/4'
  9  'x+1/2, y+1/2, z+1/2'
  10  '-y+1/2, x, z+3/4'
  11  '-x, -y, z'
  12  'y, -x+1/2, z+1/4'
  13  '-x+1/2, y+1/2, z'
  14  'y+1/2, x, z+1/4'
  15  'x, -y, z+1/2'
  16  '-y, -x+1/2, z+3/4'
loop_
 _atom_type_symbol
 _atom_type_oxidation_number
  Cu2+  2.0
  Re6+  6.0
  O2-  -2.0
loop_
 _atom_site_type_symbol
 _atom_site_label
 _atom_site_symmetry_multiplicity
 _atom_site_fract_x
 _atom_site_fract_y
 _atom_site_fract_z
 _atom_site_occupancy
  Re6+  Re0  16  0.09783900  0.35624500  0.75163100  1
  Cu2+  Cu1  16  0.11550450  0.16289450  0.06623550  1
  O2-  O2  16  0.02832750  0.36294050  0.21975450  1
  O2-  O3  16  0.03436100  0.13878300  0.59166100  1
  O2-  O4  16  0.12431250  0.25987950  0.89131950  1
  O2-  O5  16  0.15549850  0.33843450  0.55140950  1
