# generated using pymatgen
data_BeH8SO8
_symmetry_space_group_name_H-M   I-4c2
_cell_length_a   7.93497334
_cell_length_b   7.93497334
_cell_length_c   10.66149276
_cell_angle_alpha   90.00000000
_cell_angle_beta   90.00000000
_cell_angle_gamma   90.00000000
_symmetry_Int_Tables_number   120
_chemical_formula_structural   BeH8SO8
_chemical_formula_sum   'Be4 H32 S4 O32'
_cell_volume   671.28811817
_cell_formula_units_Z   4
loop_
 _symmetry_equiv_pos_site_id
 _symmetry_equiv_pos_as_xyz
  1  'x, y, z'
  2  'y, -x, -z'
  3  '-x, -y, z'
  4  '-y, x, -z'
  5  '-x, y, z+1/2'
  6  '-y, -x, -z+1/2'
  7  'x, -y, z+1/2'
  8  'y, x, -z+1/2'
  9  'x+1/2, y+1/2, z+1/2'
  10  'y+1/2, -x+1/2, -z+1/2'
  11  '-x+1/2, -y+1/2, z+1/2'
  12  '-y+1/2, x+1/2, -z+1/2'
  13  '-x+1/2, y+1/2, z'
  14  '-y+1/2, -x+1/2, -z'
  15  'x+1/2, -y+1/2, z'
  16  'y+1/2, x+1/2, -z'
loop_
 _atom_type_symbol
 _atom_type_oxidation_number
  Be2+  2.0
  H+  1.0
  S6+  6.0
  O2-  -2.0
loop_
 _atom_site_type_symbol
 _atom_site_label
 _atom_site_symmetry_multiplicity
 _atom_site_fract_x
 _atom_site_fract_y
 _atom_site_fract_z
 _atom_site_occupancy
  Be2+  Be0  4  0.00000000  0.00000000  0.00000000  1
  H+  H1  16  0.04086210  0.23218798  0.11728767  1
  H+  H2  16  0.12708006  0.21892046  0.38638055  1
  S6+  S3  4  0.00000000  0.50000000  0.25000000  1
  O2-  O4  16  0.08543831  0.37283794  0.67188391  1
  O2-  O5  16  0.10486702  0.86144451  0.57777673  1
