# generated using pymatgen
data_KNaAs6(PbO3)8
_symmetry_space_group_name_H-M   P3
_cell_length_a   10.29615183
_cell_length_b   10.29615183
_cell_length_c   7.50433600
_cell_angle_alpha   90.00000000
_cell_angle_beta   90.00000000
_cell_angle_gamma   120.00000000
_symmetry_Int_Tables_number   143
_chemical_formula_structural   KNaAs6(PbO3)8
_chemical_formula_sum   'K1 Na1 As6 Pb8 O24'
_cell_volume   688.95805046
_cell_formula_units_Z   1
loop_
 _symmetry_equiv_pos_site_id
 _symmetry_equiv_pos_as_xyz
  1  'x, y, z'
  2  '-y, x-y, z'
  3  '-x+y, -x, z'
loop_
 _atom_type_symbol
 _atom_type_oxidation_number
  K+  1.0
  Na+  1.0
  As5+  5.0
  Pb2+  2.0
  O2-  -2.0
loop_
 _atom_site_type_symbol
 _atom_site_label
 _atom_site_symmetry_multiplicity
 _atom_site_fract_x
 _atom_site_fract_y
 _atom_site_fract_z
 _atom_site_occupancy
  K+  K0  1  0.00000000  0.00000000  0.51416000  1
  Na+  Na1  1  0.66666667  0.33333333  0.99236600  1
  As5+  As2  3  0.31887100  0.27533400  0.75006300  1
  As5+  As3  3  0.35273200  0.06016000  0.24459700  1
  Pb2+  Pb4  3  0.07234500  0.66456700  0.24913300  1
  Pb2+  Pb5  3  0.07446700  0.40745800  0.75155200  1
  Pb2+  Pb6  1  0.00000000  0.00000000  0.01727200  1
  Pb2+  Pb7  1  0.66666667  0.33333333  0.51591800  1
  O2-  O8  3  0.02666000  0.18690500  0.23968600  1
  O2-  O9  3  0.07441300  0.75254400  0.93175800  1
  O2-  O10  3  0.07603200  0.74897200  0.57051600  1
  O2-  O11  3  0.23630000  0.08086200  0.75432200  1
  O2-  O12  3  0.41976200  0.01334100  0.43032600  1
  O2-  O13  3  0.42286600  0.00754400  0.06783300  1
  O2-  O14  3  0.43665300  0.25480600  0.24601500  1
  O2-  O15  3  0.51180100  0.36017200  0.75095000  1
