# generated using pymatgen
data_Ba5(Ga3H)2
_symmetry_space_group_name_H-M   P3c1
_cell_length_a   7.80747862
_cell_length_b   7.80747862
_cell_length_c   14.46809800
_cell_angle_alpha   90.00000000
_cell_angle_beta   90.00000000
_cell_angle_gamma   120.00000000
_symmetry_Int_Tables_number   158
_chemical_formula_structural   Ba5(Ga3H)2
_chemical_formula_sum   'Ba10 Ga12 H4'
_cell_volume   763.77190751
_cell_formula_units_Z   2
loop_
 _symmetry_equiv_pos_site_id
 _symmetry_equiv_pos_as_xyz
  1  'x, y, z'
  2  '-y, x-y, z'
  3  '-x+y, -x, z'
  4  '-y, -x, z+1/2'
  5  '-x+y, y, z+1/2'
  6  'x, x-y, z+1/2'
loop_
 _atom_site_type_symbol
 _atom_site_label
 _atom_site_symmetry_multiplicity
 _atom_site_fract_x
 _atom_site_fract_y
 _atom_site_fract_z
 _atom_site_occupancy
  Ba  Ba0  6  0.33200400  0.02284100  0.26308400  1
  Ba  Ba1  2  0.00000000  0.00000000  0.49838600  1
  Ba  Ba2  2  0.66666667  0.33333333  0.53088600  1
  Ga  Ga3  6  0.12560500  0.47382600  0.93400500  1
  Ga  Ga4  6  0.14145100  0.45888300  0.58940900  1
  H  H5  2  0.00000000  0.00000000  0.31636700  1
  H  H6  2  0.66666667  0.33333333  0.71870400  1
