# generated using pymatgen
data_Ag3AsO4
_symmetry_space_group_name_H-M   'P 1'
_cell_length_a   6.14178751
_cell_length_b   6.14178751
_cell_length_c   6.14178662
_cell_angle_alpha   89.86669459
_cell_angle_beta   89.86669459
_cell_angle_gamma   89.86668280
_symmetry_Int_Tables_number   1
_chemical_formula_structural   Ag3AsO4
_chemical_formula_sum   'Ag6 As2 O8'
_cell_volume   231.67585648
_cell_formula_units_Z   2
loop_
 _symmetry_equiv_pos_site_id
 _symmetry_equiv_pos_as_xyz
  1  'x, y, z'
loop_
 _atom_site_type_symbol
 _atom_site_label
 _atom_site_symmetry_multiplicity
 _atom_site_fract_x
 _atom_site_fract_y
 _atom_site_fract_z
 _atom_site_occupancy
  Ag  Ag0  1  0.71268391  0.00369851  0.50161653  1
  Ag  Ag1  1  0.00369851  0.50161653  0.71268391  1
  Ag  Ag2  1  0.50161653  0.71268391  0.00369851  1
  Ag  Ag3  1  0.21268391  0.00161653  0.50369851  1
  Ag  Ag4  1  0.50369851  0.21268391  0.00161653  1
  Ag  Ag5  1  0.00161653  0.50369851  0.21268391  1
  As  As6  1  0.50128953  0.50128953  0.50128953  1
  As  As7  1  0.00128953  0.00128953  0.00128953  1
  O  O8  1  0.67429723  0.34266056  0.65277162  1
  O  O9  1  0.65277162  0.67429723  0.34266056  1
  O  O10  1  0.34208209  0.34208209  0.34208209  1
  O  O11  1  0.34266056  0.65277162  0.67429723  1
  O  O12  1  0.84208209  0.84208209  0.84208209  1
  O  O13  1  0.17429723  0.15277162  0.84266056  1
  O  O14  1  0.15277162  0.84266056  0.17429723  1
  O  O15  1  0.84266056  0.17429723  0.15277162  1
