# generated using pymatgen
data_In2Se3
_symmetry_space_group_name_H-M   P6_5
_cell_length_a   8.18707989
_cell_length_b   8.18707989
_cell_length_c   21.48252500
_cell_angle_alpha   90.00000000
_cell_angle_beta   90.00000000
_cell_angle_gamma   120.00000000
_symmetry_Int_Tables_number   170
_chemical_formula_structural   In2Se3
_chemical_formula_sum   'In12 Se18'
_cell_volume   1247.02170810
_cell_formula_units_Z   6
loop_
 _symmetry_equiv_pos_site_id
 _symmetry_equiv_pos_as_xyz
  1  'x, y, z'
  2  'x-y, x, z+5/6'
  3  '-y, x-y, z+2/3'
  4  '-x, -y, z+1/2'
  5  '-x+y, -x, z+1/3'
  6  'y, -x+y, z+1/6'
loop_
 _atom_type_symbol
 _atom_type_oxidation_number
  In+  1.0
  In2+  2.0
  Se-  -1.0
loop_
 _atom_site_type_symbol
 _atom_site_label
 _atom_site_symmetry_multiplicity
 _atom_site_fract_x
 _atom_site_fract_y
 _atom_site_fract_z
 _atom_site_occupancy
  In2+  In0  6  0.02333500  0.68404800  0.29842467  1
  In+  In1  6  0.04136700  0.74125600  0.63436667  1
  Se-  Se2  6  0.00743900  0.66538500  0.17182733  1
  Se-  Se3  6  0.02894500  0.34941600  0.00069600  1
  Se-  Se4  6  0.28214600  0.61075000  0.83735133  1
