# generated using pymatgen
data_Ca(SO5)2
_symmetry_space_group_name_H-M   P6_4
_cell_length_a   6.70166220
_cell_length_b   6.70166220
_cell_length_c   17.02009800
_cell_angle_alpha   90.00000000
_cell_angle_beta   90.00000000
_cell_angle_gamma   120.00000000
_symmetry_Int_Tables_number   172
_chemical_formula_structural   Ca(SO5)2
_chemical_formula_sum   'Ca3 S6 O30'
_cell_volume   661.99964190
_cell_formula_units_Z   3
loop_
 _symmetry_equiv_pos_site_id
 _symmetry_equiv_pos_as_xyz
  1  'x, y, z'
  2  'x-y, x, z+2/3'
  3  '-y, x-y, z+1/3'
  4  '-x, -y, z'
  5  '-x+y, -x, z+2/3'
  6  'y, -x+y, z+1/3'
loop_
 _atom_site_type_symbol
 _atom_site_label
 _atom_site_symmetry_multiplicity
 _atom_site_fract_x
 _atom_site_fract_y
 _atom_site_fract_z
 _atom_site_occupancy
  Ca  Ca0  3  0.00000000  0.00000000  0.33282200  1
  S  S1  6  0.09019500  0.39539400  0.83203467  1
  O  O2  6  0.00880400  0.75658600  0.76221767  1
  O  O3  6  0.01711400  0.25368600  0.90459767  1
  O  O4  6  0.18447200  0.68524600  0.32628500  1
  O  O5  6  0.18725800  0.50455300  0.33248200  1
  O  O6  6  0.23304700  0.66870000  0.49516633  1
