# generated using pymatgen
data_SiO2
_symmetry_space_group_name_H-M   P6_522
_cell_length_a   7.30055052
_cell_length_b   7.30055052
_cell_length_c   7.00512373
_cell_angle_alpha   90.00000000
_cell_angle_beta   90.00000000
_cell_angle_gamma   120.00000000
_symmetry_Int_Tables_number   179
_chemical_formula_structural   SiO2
_chemical_formula_sum   'Si6 O12'
_cell_volume   323.33868172
_cell_formula_units_Z   6
loop_
 _symmetry_equiv_pos_site_id
 _symmetry_equiv_pos_as_xyz
  1  'x, y, z'
  2  'x-y, x, z+5/6'
  3  '-y, x-y, z+2/3'
  4  '-x, -y, z+1/2'
  5  '-x+y, -x, z+1/3'
  6  'y, -x+y, z+1/6'
  7  '-y, -x, -z+1/6'
  8  '-x, -x+y, -z+1/3'
  9  '-x+y, y, -z+1/2'
  10  'y, x, -z+2/3'
  11  'x, x-y, -z+5/6'
  12  'x-y, -y, -z'
loop_
 _atom_type_symbol
 _atom_type_oxidation_number
  Si4+  4.0
  O2-  -2.0
loop_
 _atom_site_type_symbol
 _atom_site_label
 _atom_site_symmetry_multiplicity
 _atom_site_fract_x
 _atom_site_fract_y
 _atom_site_fract_z
 _atom_site_occupancy
  Si4+  Si0  6  0.23307082  0.46614164  0.75000000  1
  O2-  O1  6  0.00000000  0.31710288  0.66666667  1
  O2-  O2  6  0.22465208  0.61232604  0.91666667  1
