# generated using pymatgen
data_K3PSe16
_symmetry_space_group_name_H-M   Fd-3
_cell_length_a   16.64163430
_cell_length_b   16.64163430
_cell_length_c   16.64163430
_cell_angle_alpha   90.00000000
_cell_angle_beta   90.00000000
_cell_angle_gamma   90.00000000
_symmetry_Int_Tables_number   203
_chemical_formula_structural   K3PSe16
_chemical_formula_sum   'K24 P8 Se128'
_cell_volume   4608.80064269
_cell_formula_units_Z   8
loop_
 _symmetry_equiv_pos_site_id
 _symmetry_equiv_pos_as_xyz
  1  'x, y, z'
  2  '-x, -y, z'
  3  'x, -y, -z'
  4  '-x, y, -z'
  5  'z, x, y'
  6  'z, -x, -y'
  7  '-z, x, -y'
  8  '-z, -x, y'
  9  'y, z, x'
  10  '-y, z, -x'
  11  '-y, -z, x'
  12  'y, -z, -x'
  13  '-x+1/4, -y+1/4, -z+1/4'
  14  'x+1/4, y+1/4, -z+1/4'
  15  '-x+1/4, y+1/4, z+1/4'
  16  'x+1/4, -y+1/4, z+1/4'
  17  '-z+1/4, -x+1/4, -y+1/4'
  18  '-z+1/4, x+1/4, y+1/4'
  19  'z+1/4, -x+1/4, y+1/4'
  20  'z+1/4, x+1/4, -y+1/4'
  21  '-y+1/4, -z+1/4, -x+1/4'
  22  'y+1/4, -z+1/4, x+1/4'
  23  'y+1/4, z+1/4, -x+1/4'
  24  '-y+1/4, z+1/4, x+1/4'
  25  'x+1/2, y+1/2, z'
  26  '-x+1/2, -y+1/2, z'
  27  'x+1/2, -y+1/2, -z'
  28  '-x+1/2, y+1/2, -z'
  29  'z+1/2, x+1/2, y'
  30  'z+1/2, -x+1/2, -y'
  31  '-z+1/2, x+1/2, -y'
  32  '-z+1/2, -x+1/2, y'
  33  'y+1/2, z+1/2, x'
  34  '-y+1/2, z+1/2, -x'
  35  '-y+1/2, -z+1/2, x'
  36  'y+1/2, -z+1/2, -x'
  37  '-x+3/4, -y+3/4, -z+1/4'
  38  'x+3/4, y+3/4, -z+1/4'
  39  '-x+3/4, y+3/4, z+1/4'
  40  'x+3/4, -y+3/4, z+1/4'
  41  '-z+3/4, -x+3/4, -y+1/4'
  42  '-z+3/4, x+3/4, y+1/4'
  43  'z+3/4, -x+3/4, y+1/4'
  44  'z+3/4, x+3/4, -y+1/4'
  45  '-y+3/4, -z+3/4, -x+1/4'
  46  'y+3/4, -z+3/4, x+1/4'
  47  'y+3/4, z+3/4, -x+1/4'
  48  '-y+3/4, z+3/4, x+1/4'
  49  'x+1/2, y, z+1/2'
  50  '-x+1/2, -y, z+1/2'
  51  'x+1/2, -y, -z+1/2'
  52  '-x+1/2, y, -z+1/2'
  53  'z+1/2, x, y+1/2'
  54  'z+1/2, -x, -y+1/2'
  55  '-z+1/2, x, -y+1/2'
  56  '-z+1/2, -x, y+1/2'
  57  'y+1/2, z, x+1/2'
  58  '-y+1/2, z, -x+1/2'
  59  '-y+1/2, -z, x+1/2'
  60  'y+1/2, -z, -x+1/2'
  61  '-x+3/4, -y+1/4, -z+3/4'
  62  'x+3/4, y+1/4, -z+3/4'
  63  '-x+3/4, y+1/4, z+3/4'
  64  'x+3/4, -y+1/4, z+3/4'
  65  '-z+3/4, -x+1/4, -y+3/4'
  66  '-z+3/4, x+1/4, y+3/4'
  67  'z+3/4, -x+1/4, y+3/4'
  68  'z+3/4, x+1/4, -y+3/4'
  69  '-y+3/4, -z+1/4, -x+3/4'
  70  'y+3/4, -z+1/4, x+3/4'
  71  'y+3/4, z+1/4, -x+3/4'
  72  '-y+3/4, z+1/4, x+3/4'
  73  'x, y+1/2, z+1/2'
  74  '-x, -y+1/2, z+1/2'
  75  'x, -y+1/2, -z+1/2'
  76  '-x, y+1/2, -z+1/2'
  77  'z, x+1/2, y+1/2'
  78  'z, -x+1/2, -y+1/2'
  79  '-z, x+1/2, -y+1/2'
  80  '-z, -x+1/2, y+1/2'
  81  'y, z+1/2, x+1/2'
  82  '-y, z+1/2, -x+1/2'
  83  '-y, -z+1/2, x+1/2'
  84  'y, -z+1/2, -x+1/2'
  85  '-x+1/4, -y+3/4, -z+3/4'
  86  'x+1/4, y+3/4, -z+3/4'
  87  '-x+1/4, y+3/4, z+3/4'
  88  'x+1/4, -y+3/4, z+3/4'
  89  '-z+1/4, -x+3/4, -y+3/4'
  90  '-z+1/4, x+3/4, y+3/4'
  91  'z+1/4, -x+3/4, y+3/4'
  92  'z+1/4, x+3/4, -y+3/4'
  93  '-y+1/4, -z+3/4, -x+3/4'
  94  'y+1/4, -z+3/4, x+3/4'
  95  'y+1/4, z+3/4, -x+3/4'
  96  '-y+1/4, z+3/4, x+3/4'
loop_
 _atom_type_symbol
 _atom_type_oxidation_number
  K+  1.0
  P5+  5.0
  Se0.50-  -0.5
loop_
 _atom_site_type_symbol
 _atom_site_label
 _atom_site_symmetry_multiplicity
 _atom_site_fract_x
 _atom_site_fract_y
 _atom_site_fract_z
 _atom_site_occupancy
  K+  K0  16  0.12500000  0.12500000  0.62500000  1
  K+  K1  8  0.00000000  0.00000000  0.00000000  1
  P5+  P2  8  0.00000000  0.00000000  0.50000000  1
  Se0.50-  Se3  96  0.01229189  0.19529095  0.11396465  1
  Se0.50-  Se4  32  0.07650223  0.07650223  0.42349777  1
