# generated using pymatgen
data_Co3BiO8
_symmetry_space_group_name_H-M   'P 1'
_cell_length_a   8.26491349
_cell_length_b   8.26491349
_cell_length_c   8.26491349
_cell_angle_alpha   90.00000000
_cell_angle_beta   90.00000000
_cell_angle_gamma   90.00000000
_symmetry_Int_Tables_number   1
_chemical_formula_structural   Co3BiO8
_chemical_formula_sum   'Co12 Bi4 O32'
_cell_volume   564.56628126
_cell_formula_units_Z   4
loop_
 _symmetry_equiv_pos_site_id
 _symmetry_equiv_pos_as_xyz
  1  'x, y, z'
loop_
 _atom_site_type_symbol
 _atom_site_label
 _atom_site_symmetry_multiplicity
 _atom_site_fract_x
 _atom_site_fract_y
 _atom_site_fract_z
 _atom_site_occupancy
  Co  Co0  1  0.10077294  0.14922706  0.62500000  1
  Co  Co1  1  0.12500000  0.39922706  0.85077294  1
  Co  Co2  1  0.14922706  0.62500000  0.10077294  1
  Co  Co3  1  0.35077294  0.37500000  0.60077294  1
  Co  Co4  1  0.37500000  0.60077294  0.35077294  1
  Co  Co5  1  0.39922706  0.85077294  0.12500000  1
  Co  Co6  1  0.60077294  0.35077294  0.37500000  1
  Co  Co7  1  0.62500000  0.10077294  0.14922706  1
  Co  Co8  1  0.64922706  0.87500000  0.89922706  1
  Co  Co9  1  0.85077294  0.12500000  0.39922706  1
  Co  Co10  1  0.87500000  0.89922706  0.64922706  1
  Co  Co11  1  0.89922706  0.64922706  0.87500000  1
  Bi  Bi12  1  0.12500000  0.87500000  0.37500000  1
  Bi  Bi13  1  0.37500000  0.12500000  0.87500000  1
  Bi  Bi14  1  0.62500000  0.62500000  0.62500000  1
  Bi  Bi15  1  0.87500000  0.37500000  0.12500000  1
  O  O16  1  0.07635118  0.13826308  0.39949506  1
  O  O17  1  0.10050494  0.92364882  0.63826308  1
  O  O18  1  0.12023133  0.62023133  0.87976867  1
  O  O19  1  0.11173692  0.17364882  0.85050494  1
  O  O20  1  0.13826308  0.39949506  0.07635118  1
  O  O21  1  0.12976867  0.37023133  0.62976867  1
  O  O22  1  0.14949506  0.61173692  0.32635118  1
  O  O23  1  0.17364882  0.85050494  0.11173692  1
  O  O24  1  0.32635118  0.14949506  0.61173692  1
  O  O25  1  0.35050494  0.38826308  0.82635118  1
  O  O26  1  0.37023133  0.62976867  0.12976867  1
  O  O27  1  0.36173692  0.60050494  0.57635118  1
  O  O28  1  0.38826308  0.82635118  0.35050494  1
  O  O29  1  0.37976867  0.37976867  0.37976867  1
  O  O30  1  0.39949506  0.07635118  0.13826308  1
  O  O31  1  0.42364882  0.86173692  0.89949506  1
  O  O32  1  0.57635118  0.36173692  0.60050494  1
  O  O33  1  0.60050494  0.57635118  0.36173692  1
  O  O34  1  0.62023133  0.87976867  0.12023133  1
  O  O35  1  0.61173692  0.32635118  0.14949506  1
  O  O36  1  0.63826308  0.10050494  0.92364882  1
  O  O37  1  0.62976867  0.12976867  0.37023133  1
  O  O38  1  0.64949506  0.88826308  0.67364882  1
  O  O39  1  0.67364882  0.64949506  0.88826308  1
  O  O40  1  0.82635118  0.35050494  0.38826308  1
  O  O41  1  0.85050494  0.11173692  0.17364882  1
  O  O42  1  0.87023133  0.87023133  0.87023133  1
  O  O43  1  0.86173692  0.89949506  0.42364882  1
  O  O44  1  0.88826308  0.67364882  0.64949506  1
  O  O45  1  0.87976867  0.12023133  0.62023133  1
  O  O46  1  0.89949506  0.42364882  0.86173692  1
  O  O47  1  0.92364882  0.63826308  0.10050494  1
