# generated using pymatgen
data_Ag2GeSe3
_symmetry_space_group_name_H-M   'P 1'
_cell_length_a   7.21908235
_cell_length_b   7.21908235
_cell_length_c   6.79972824
_cell_angle_alpha   90.00000000
_cell_angle_beta   90.00000000
_cell_angle_gamma   119.25812962
_symmetry_Int_Tables_number   1
_chemical_formula_structural   Ag2GeSe3
_chemical_formula_sum   'Ag4 Ge2 Se6'
_cell_volume   309.16084166
_cell_formula_units_Z   2
loop_
 _symmetry_equiv_pos_site_id
 _symmetry_equiv_pos_as_xyz
  1  'x, y, z'
loop_
 _atom_site_type_symbol
 _atom_site_label
 _atom_site_symmetry_multiplicity
 _atom_site_fract_x
 _atom_site_fract_y
 _atom_site_fract_z
 _atom_site_occupancy
  Ag  Ag0  1  0.99073898  0.30805797  0.98955781  1
  Ag  Ag1  1  0.30805797  0.99073898  0.98955781  1
  Ag  Ag2  1  0.00926102  0.69194203  0.48955781  1
  Ag  Ag3  1  0.69194203  0.00926102  0.48955781  1
  Ge  Ge4  1  0.65802215  0.65802215  0.96200026  1
  Ge  Ge5  1  0.34197785  0.34197785  0.46200026  1
  Se  Se6  1  0.03516480  0.35204815  0.37330638  1
  Se  Se7  1  0.35204815  0.03516480  0.37330638  1
  Se  Se8  1  0.96483520  0.64795185  0.87330638  1
  Se  Se9  1  0.64795185  0.96483520  0.87330638  1
  Se  Se10  1  0.65195677  0.65195677  0.32927036  1
  Se  Se11  1  0.34804323  0.34804323  0.82927036  1
