# generated using pymatgen
data_Ag2SnSe3
_symmetry_space_group_name_H-M   'P 1'
_cell_length_a   7.40259624
_cell_length_b   7.40259624
_cell_length_c   28.12003028
_cell_angle_alpha   87.06930309
_cell_angle_beta   87.06930309
_cell_angle_gamma   119.49624773
_symmetry_Int_Tables_number   1
_chemical_formula_structural   Ag2SnSe3
_chemical_formula_sum   'Ag16 Sn8 Se24'
_cell_volume   1334.28550147
_cell_formula_units_Z   8
loop_
 _symmetry_equiv_pos_site_id
 _symmetry_equiv_pos_as_xyz
  1  'x, y, z'
loop_
 _atom_site_type_symbol
 _atom_site_label
 _atom_site_symmetry_multiplicity
 _atom_site_fract_x
 _atom_site_fract_y
 _atom_site_fract_z
 _atom_site_occupancy
  Ag  Ag0  1  0.84054140  0.69324717  0.98786935  1
  Ag  Ag1  1  0.69324717  0.84054140  0.48786935  1
  Ag  Ag2  1  0.52772902  0.02454655  0.98358391  1
  Ag  Ag3  1  0.02454655  0.52772902  0.48358391  1
  Ag  Ag4  1  0.88114236  0.37087520  0.86087012  1
  Ag  Ag5  1  0.37087520  0.88114236  0.36087012  1
  Ag  Ag6  1  0.22221739  0.05664425  0.86025346  1
  Ag  Ag7  1  0.05664425  0.22221739  0.36025346  1
  Ag  Ag8  1  0.90161080  0.09657326  0.73797381  1
  Ag  Ag9  1  0.09657326  0.90161080  0.23797381  1
  Ag  Ag10  1  0.60010468  0.44232881  0.73316566  1
  Ag  Ag11  1  0.44232881  0.60010468  0.23316566  1
  Ag  Ag12  1  0.63767625  0.12673146  0.60724091  1
  Ag  Ag13  1  0.12673146  0.63767625  0.10724091  1
  Ag  Ag14  1  0.29646093  0.46807974  0.61244769  1
  Ag  Ag15  1  0.46807974  0.29646093  0.11244769  1
  Sn  Sn16  1  0.16080645  0.32820696  0.97986504  1
  Sn  Sn17  1  0.32820696  0.16080645  0.47986504  1
  Sn  Sn18  1  0.55110751  0.70419863  0.85512717  1
  Sn  Sn19  1  0.70419863  0.55110751  0.35512717  1
  Sn  Sn20  1  0.27685750  0.76193800  0.73024030  1
  Sn  Sn21  1  0.76193800  0.27685750  0.23024030  1
  Sn  Sn22  1  0.97181124  0.79006876  0.60594174  1
  Sn  Sn23  1  0.79006876  0.97181124  0.10594174  1
  Se  Se24  1  0.31196336  0.14465576  0.57478387  1
  Se  Se25  1  0.14465576  0.31196336  0.07478387  1
  Se  Se26  1  0.50646390  0.67945742  0.94999401  1
  Se  Se27  1  0.67945742  0.50646390  0.44999401  1
  Se  Se28  1  0.95408429  0.78617241  0.70060806  1
  Se  Se29  1  0.78617241  0.95408429  0.20060806  1
  Se  Se30  1  0.59188337  0.10672777  0.70117413  1
  Se  Se31  1  0.10672777  0.59188337  0.20117413  1
  Se  Se32  1  0.26012897  0.43106394  0.70621669  1
  Se  Se33  1  0.43106394  0.26012897  0.20621669  1
  Se  Se34  1  0.22742878  0.72576060  0.82544328  1
  Se  Se35  1  0.72576060  0.22742878  0.32544328  1
  Se  Se36  1  0.88299142  0.04196948  0.83061842  1
  Se  Se37  1  0.04196948  0.88299142  0.33061842  1
  Se  Se38  1  0.86369199  0.37389158  0.95398307  1
  Se  Se39  1  0.37389158  0.86369199  0.45398307  1
  Se  Se40  1  0.97947919  0.47647236  0.57746654  1
  Se  Se41  1  0.47647236  0.97947919  0.07746654  1
  Se  Se42  1  0.56693543  0.39408350  0.82721832  1
  Se  Se43  1  0.39408350  0.56693543  0.32721832  1
  Se  Se44  1  0.19165936  0.02273493  0.95415638  1
  Se  Se45  1  0.02273493  0.19165936  0.45415638  1
  Se  Se46  1  0.65359699  0.79959486  0.58112808  1
  Se  Se47  1  0.79959486  0.65359699  0.08112808  1
