# generated using pymatgen
data_SrMn2V2O8
_symmetry_space_group_name_H-M   I4_1cd
_cell_length_a   12.64539600
_cell_length_b   12.64539600
_cell_length_c   8.82542400
_cell_angle_alpha   90.00000000
_cell_angle_beta   90.00000000
_cell_angle_gamma   90.00000000
_symmetry_Int_Tables_number   110
_chemical_formula_structural   SrMn2V2O8
_chemical_formula_sum   'Sr8 Mn16 V16 O64'
_cell_volume   1411.23860313
_cell_formula_units_Z   8
loop_
 _symmetry_equiv_pos_site_id
 _symmetry_equiv_pos_as_xyz
  1  'x, y, z'
  2  '-y, x+1/2, z+1/4'
  3  '-x+1/2, -y+1/2, z+1/2'
  4  'y+1/2, -x, z+3/4'
  5  '-x, y, z+1/2'
  6  'y, x+1/2, z+3/4'
  7  'x+1/2, -y+1/2, z'
  8  '-y+1/2, -x, z+1/4'
  9  'x+1/2, y+1/2, z+1/2'
  10  '-y+1/2, x, z+3/4'
  11  '-x, -y, z'
  12  'y, -x+1/2, z+1/4'
  13  '-x+1/2, y+1/2, z'
  14  'y+1/2, x, z+1/4'
  15  'x, -y, z+1/2'
  16  '-y, -x+1/2, z+3/4'
loop_
 _atom_type_symbol
 _atom_type_oxidation_number
  Sr2+  2.0
  Mn2+  2.0
  V5+  5.0
  O2-  -2.0
loop_
 _atom_site_type_symbol
 _atom_site_label
 _atom_site_symmetry_multiplicity
 _atom_site_fract_x
 _atom_site_fract_y
 _atom_site_fract_z
 _atom_site_occupancy
  Sr2+  Sr0  8  0.00000000  0.00000000  0.00369000  1
  Mn2+  Mn1  16  0.16619300  0.33074600  0.95949300  1
  V5+  V2  16  0.07894200  0.23585700  0.32783000  1
  O2-  O3  16  0.00136600  0.32506400  0.92067000  1
  O2-  O4  16  0.00289950  0.14062550  0.74297350  1
  O2-  O5  16  0.15332550  0.31279550  0.19932450  1
  O2-  O6  16  0.15688200  0.16790000  0.46326300  1
