# generated using pymatgen
data_CeSe2
_symmetry_space_group_name_H-M   'P 1'
_cell_length_a   7.51553082
_cell_length_b   17.62942712
_cell_length_c   17.62942712
_cell_angle_alpha   90.00000000
_cell_angle_beta   90.00000000
_cell_angle_gamma   90.00000000
_symmetry_Int_Tables_number   1
_chemical_formula_structural   CeSe2
_chemical_formula_sum   'Ce16 Se32'
_cell_volume   2335.80218196
_cell_formula_units_Z   16
loop_
 _symmetry_equiv_pos_site_id
 _symmetry_equiv_pos_as_xyz
  1  'x, y, z'
loop_
 _atom_site_type_symbol
 _atom_site_label
 _atom_site_symmetry_multiplicity
 _atom_site_fract_x
 _atom_site_fract_y
 _atom_site_fract_z
 _atom_site_occupancy
  Ce  Ce0  1  0.72373250  0.71076419  0.40152989  1
  Ce  Ce1  1  0.72373250  0.28923581  0.59847011  1
  Ce  Ce2  1  0.77626750  0.21076419  0.90152989  1
  Ce  Ce3  1  0.77626750  0.78923581  0.09847011  1
  Ce  Ce4  1  0.27626750  0.71076419  0.59847011  1
  Ce  Ce5  1  0.27626750  0.28923581  0.40152989  1
  Ce  Ce6  1  0.22373250  0.21076419  0.09847011  1
  Ce  Ce7  1  0.22373250  0.78923581  0.90152989  1
  Ce  Ce8  1  0.72373250  0.40152989  0.28923581  1
  Ce  Ce9  1  0.72373250  0.59847011  0.71076419  1
  Ce  Ce10  1  0.77626750  0.90152989  0.78923581  1
  Ce  Ce11  1  0.77626750  0.09847011  0.21076419  1
  Ce  Ce12  1  0.27626750  0.59847011  0.28923581  1
  Ce  Ce13  1  0.27626750  0.40152989  0.71076419  1
  Ce  Ce14  1  0.22373250  0.09847011  0.78923581  1
  Ce  Ce15  1  0.22373250  0.90152989  0.21076419  1
  Se  Se16  1  0.50000000  0.59307524  0.40692476  1
  Se  Se17  1  0.50000000  0.40692476  0.59307524  1
  Se  Se18  1  -0.00000000  0.09307524  0.90692476  1
  Se  Se19  1  -0.00000000  0.90692476  0.09307524  1
  Se  Se20  1  0.50000000  0.59307524  0.59307524  1
  Se  Se21  1  0.50000000  0.40692476  0.40692476  1
  Se  Se22  1  -0.00000000  0.09307524  0.09307524  1
  Se  Se23  1  -0.00000000  0.90692476  0.90692476  1
  Se  Se24  1  -0.00000000  0.60806622  0.39193378  1
  Se  Se25  1  -0.00000000  0.39193378  0.60806622  1
  Se  Se26  1  0.50000000  0.10806622  0.89193378  1
  Se  Se27  1  0.50000000  0.89193378  0.10806622  1
  Se  Se28  1  -0.00000000  0.60806622  0.60806622  1
  Se  Se29  1  -0.00000000  0.39193378  0.39193378  1
  Se  Se30  1  0.50000000  0.10806622  0.10806622  1
  Se  Se31  1  0.50000000  0.89193378  0.89193378  1
  Se  Se32  1  0.75000000  0.75000000  0.25000000  1
  Se  Se33  1  0.75000000  0.25000000  0.75000000  1
  Se  Se34  1  0.25000000  0.75000000  0.75000000  1
  Se  Se35  1  0.25000000  0.25000000  0.25000000  1
  Se  Se36  1  0.75000000  0.25000000  0.25000000  1
  Se  Se37  1  0.75000000  0.75000000  0.75000000  1
  Se  Se38  1  0.25000000  0.75000000  0.25000000  1
  Se  Se39  1  0.25000000  0.25000000  0.75000000  1
  Se  Se40  1  0.50000000  0.79210387  0.50000000  1
  Se  Se41  1  0.50000000  0.20789613  0.50000000  1
  Se  Se42  1  -0.00000000  0.29210387  -0.00000000  1
  Se  Se43  1  -0.00000000  0.70789613  -0.00000000  1
  Se  Se44  1  0.50000000  0.50000000  0.20789613  1
  Se  Se45  1  0.50000000  0.50000000  0.79210387  1
  Se  Se46  1  -0.00000000  -0.00000000  0.70789613  1
  Se  Se47  1  -0.00000000  -0.00000000  0.29210387  1
