# generated using pymatgen
data_CeSiBO5
_symmetry_space_group_name_H-M   P3_1
_cell_length_a   6.85199927
_cell_length_b   6.85199927
_cell_length_c   6.69212158
_cell_angle_alpha   90.00000000
_cell_angle_beta   90.00000000
_cell_angle_gamma   120.00000000
_symmetry_Int_Tables_number   144
_chemical_formula_structural   CeSiBO5
_chemical_formula_sum   'Ce3 Si3 B3 O15'
_cell_volume   272.10033109
_cell_formula_units_Z   3
loop_
 _symmetry_equiv_pos_site_id
 _symmetry_equiv_pos_as_xyz
  1  'x, y, z'
  2  '-y, x-y, z+1/3'
  3  '-x+y, -x, z+2/3'
loop_
 _atom_type_symbol
 _atom_type_oxidation_number
  Ce3+  3.0
  Si4+  4.0
  B3+  3.0
  O2-  -2.0
loop_
 _atom_site_type_symbol
 _atom_site_label
 _atom_site_symmetry_multiplicity
 _atom_site_fract_x
 _atom_site_fract_y
 _atom_site_fract_z
 _atom_site_occupancy
  Ce3+  Ce0  3  0.00042278  0.58796817  0.16744031  1
  Si4+  Si1  3  0.00188834  0.58453394  0.66862998  1
  B3+  B2  3  0.11530509  0.01470742  0.80628345  1
  O2-  O3  3  0.06128024  0.05380841  0.60693767  1
  O2-  O4  3  0.13973016  0.80839015  0.81513263  1
  O2-  O5  3  0.14910074  0.54441970  0.50442952  1
  O2-  O6  3  0.34919301  0.19563996  0.85854437  1
  O2-  O7  3  0.52731255  0.13658260  0.49614501  1
