# generated using pymatgen
data_CsHgCl3
_symmetry_space_group_name_H-M   P3_2
_cell_length_a   13.38716199
_cell_length_b   13.38716199
_cell_length_c   9.46966602
_cell_angle_alpha   90.00000000
_cell_angle_beta   90.00000000
_cell_angle_gamma   120.00000000
_symmetry_Int_Tables_number   145
_chemical_formula_structural   CsHgCl3
_chemical_formula_sum   'Cs9 Hg9 Cl27'
_cell_volume   1469.74614986
_cell_formula_units_Z   9
loop_
 _symmetry_equiv_pos_site_id
 _symmetry_equiv_pos_as_xyz
  1  'x, y, z'
  2  '-y, x-y, z+2/3'
  3  '-x+y, -x, z+1/3'
loop_
 _atom_type_symbol
 _atom_type_oxidation_number
  Cs+  1.0
  Hg2+  2.0
  Cl-  -1.0
loop_
 _atom_site_type_symbol
 _atom_site_label
 _atom_site_symmetry_multiplicity
 _atom_site_fract_x
 _atom_site_fract_y
 _atom_site_fract_z
 _atom_site_occupancy
  Cs+  Cs0  3  0.21523981  0.78052037  0.13543254  1
  Cs+  Cs1  3  0.22077452  0.11992783  0.49539528  1
  Cs+  Cs2  3  0.54942476  0.10539109  0.80965477  1
  Hg2+  Hg3  3  0.22035573  0.77442261  0.64839899  1
  Hg2+  Hg4  3  0.22453976  0.11184353  0.97772317  1
  Hg2+  Hg5  3  0.55428038  0.10903160  0.31161609  1
  Cl-  Cl6  3  0.01300813  0.41403071  0.13686017  1
  Cl-  Cl7  3  0.04174310  0.94121313  0.19464315  1
  Cl-  Cl8  3  0.06242213  0.58886693  0.79832191  1
  Cl-  Cl9  3  0.06429094  0.28478514  0.49530242  1
  Cl-  Cl10  3  0.08691805  0.78295595  0.48622681  1
  Cl-  Cl11  3  0.22440781  0.60923770  0.41882796  1
  Cl-  Cl12  3  0.35877674  0.12479351  0.15593149  1
  Cl-  Cl13  3  0.38327729  0.27767702  0.80628234  1
  Cl-  Cl14  3  0.57796613  0.31539912  0.49187238  1
