# generated using pymatgen
data_AlInSe3
_symmetry_space_group_name_H-M   P6_1
_cell_length_a   7.06971362
_cell_length_b   7.06971362
_cell_length_c   18.84396187
_cell_angle_alpha   90.00000000
_cell_angle_beta   90.00000000
_cell_angle_gamma   120.00000000
_symmetry_Int_Tables_number   169
_chemical_formula_structural   AlInSe3
_chemical_formula_sum   'Al6 In6 Se18'
_cell_volume   815.65497913
_cell_formula_units_Z   6
loop_
 _symmetry_equiv_pos_site_id
 _symmetry_equiv_pos_as_xyz
  1  'x, y, z'
  2  'x-y, x, z+1/6'
  3  '-y, x-y, z+1/3'
  4  '-x, -y, z+1/2'
  5  '-x+y, -x, z+2/3'
  6  'y, -x+y, z+5/6'
loop_
 _atom_type_symbol
 _atom_type_oxidation_number
  Al3+  3.0
  In3+  3.0
  Se2-  -2.0
loop_
 _atom_site_type_symbol
 _atom_site_label
 _atom_site_symmetry_multiplicity
 _atom_site_fract_x
 _atom_site_fract_y
 _atom_site_fract_z
 _atom_site_occupancy
  Al3+  Al0  6  0.01686244  0.68770772  0.02552096  1
  In3+  In1  6  0.00627663  0.66936918  0.66278996  1
  Se2-  Se2  6  0.00985003  0.29309814  0.65336161  1
  Se2-  Se3  6  0.02351323  0.37113065  0.31280849  1
  Se2-  Se4  6  0.04168237  0.67211974  0.51147852  1
