# generated using pymatgen
data_BaH2N2O5
_symmetry_space_group_name_H-M   P6_5
_cell_length_a   7.17410810
_cell_length_b   7.17410810
_cell_length_c   18.17519700
_cell_angle_alpha   90.00000000
_cell_angle_beta   90.00000000
_cell_angle_gamma   120.00000000
_symmetry_Int_Tables_number   170
_chemical_formula_structural   BaH2N2O5
_chemical_formula_sum   'Ba6 H12 N12 O30'
_cell_volume   810.11298029
_cell_formula_units_Z   6
loop_
 _symmetry_equiv_pos_site_id
 _symmetry_equiv_pos_as_xyz
  1  'x, y, z'
  2  'x-y, x, z+5/6'
  3  '-y, x-y, z+2/3'
  4  '-x, -y, z+1/2'
  5  '-x+y, -x, z+1/3'
  6  'y, -x+y, z+1/6'
loop_
 _atom_type_symbol
 _atom_type_oxidation_number
  Ba2+  2.0
  H+  1.0
  N3+  3.0
  O2-  -2.0
loop_
 _atom_site_type_symbol
 _atom_site_label
 _atom_site_symmetry_multiplicity
 _atom_site_fract_x
 _atom_site_fract_y
 _atom_site_fract_z
 _atom_site_occupancy
  Ba2+  Ba0  6  0.14545100  0.57906500  0.66607467  1
  H+  H1  6  0.02479200  0.85690200  0.54653167  1
  H+  H2  6  0.04192900  0.90276700  0.77027633  1
  N3+  N3  6  0.03339200  0.78775000  0.31294567  1
  N3+  N4  6  0.12153300  0.55532500  0.49277267  1
  O2-  O5  6  0.00839300  0.39624600  0.45151967  1
  O2-  O6  6  0.07469000  0.22628700  0.24680833  1
  O2-  O7  6  0.10080000  0.66391000  0.29111267  1
  O2-  O8  6  0.10353100  0.86524200  0.11365400  1
  O2-  O9  6  0.29559700  0.70227800  0.46422567  1
