# generated using pymatgen
data_Sr(SO5)2
_symmetry_space_group_name_H-M   P6_2
_cell_length_a   6.73744203
_cell_length_b   6.73744203
_cell_length_c   18.00133000
_cell_angle_alpha   90.00000000
_cell_angle_beta   90.00000000
_cell_angle_gamma   120.00000000
_symmetry_Int_Tables_number   171
_chemical_formula_structural   Sr(SO5)2
_chemical_formula_sum   'Sr3 S6 O30'
_cell_volume   707.66107563
_cell_formula_units_Z   3
loop_
 _symmetry_equiv_pos_site_id
 _symmetry_equiv_pos_as_xyz
  1  'x, y, z'
  2  'x-y, x, z+1/3'
  3  '-y, x-y, z+2/3'
  4  '-x, -y, z'
  5  '-x+y, -x, z+1/3'
  6  'y, -x+y, z+2/3'
loop_
 _atom_site_type_symbol
 _atom_site_label
 _atom_site_symmetry_multiplicity
 _atom_site_fract_x
 _atom_site_fract_y
 _atom_site_fract_z
 _atom_site_occupancy
  Sr  Sr0  3  0.00000000  0.00000000  0.00470633  1
  S  S1  6  0.09144000  0.69062000  0.17103367  1
  O  O2  6  0.00021400  0.25256000  0.10442867  1
  O  O3  6  0.01427900  0.75149300  0.24008367  1
  O  O4  6  0.23724000  0.56944100  0.83526133  1
  O  O5  6  0.26500400  0.70744900  0.68749200  1
  O  O6  6  0.27275300  0.55117800  0.65468400  1
