# generated using pymatgen
data_Ag(MoSe)3
_symmetry_space_group_name_H-M   'P 1'
_cell_length_a   4.49059834
_cell_length_b   8.46385358
_cell_length_c   8.46240076
_cell_angle_alpha   120.00385435
_cell_angle_beta   90.00000000
_cell_angle_gamma   90.00000000
_symmetry_Int_Tables_number   1
_chemical_formula_structural   Ag(MoSe)3
_chemical_formula_sum   'Ag2 Mo6 Se6'
_cell_volume   278.53495480
_cell_formula_units_Z   2
loop_
 _symmetry_equiv_pos_site_id
 _symmetry_equiv_pos_as_xyz
  1  'x, y, z'
loop_
 _atom_site_type_symbol
 _atom_site_label
 _atom_site_symmetry_multiplicity
 _atom_site_fract_x
 _atom_site_fract_y
 _atom_site_fract_z
 _atom_site_occupancy
  Ag  Ag0  1  0.75000000  0.33324889  0.66644349  1
  Ag  Ag1  1  0.25000000  0.66694346  0.33329676  1
  Mo  Mo2  1  0.75000000  0.05781408  0.85492734  1
  Mo  Mo3  1  0.75000000  0.14499924  0.20299364  1
  Mo  Mo4  1  0.75000000  0.79704190  0.94213494  1
  Mo  Mo5  1  0.25000000  0.94208206  0.14509559  1
  Mo  Mo6  1  0.25000000  0.85489977  0.79705269  1
  Mo  Mo7  1  0.25000000  0.20289211  0.05793883  1
  Se  Se8  1  0.75000000  0.71091399  0.60007057  1
  Se  Se9  1  0.75000000  0.39980610  0.11085613  1
  Se  Se10  1  0.75000000  0.88921150  0.28912241  1
  Se  Se11  1  0.25000000  0.28910846  0.39990978  1
  Se  Se12  1  0.25000000  0.60009517  0.88909045  1
  Se  Se13  1  0.25000000  0.11094327  0.71106736  1
