# generated using pymatgen
data_Na6Mg2C4SO16
_symmetry_space_group_name_H-M   Fd-3
_cell_length_a   14.05672400
_cell_length_b   14.05672400
_cell_length_c   14.05672400
_cell_angle_alpha   90.00000000
_cell_angle_beta   90.00000000
_cell_angle_gamma   90.00000000
_symmetry_Int_Tables_number   203
_chemical_formula_structural   Na6Mg2C4SO16
_chemical_formula_sum   'Na48 Mg16 C32 S8 O128'
_cell_volume   2777.48903423
_cell_formula_units_Z   8
loop_
 _symmetry_equiv_pos_site_id
 _symmetry_equiv_pos_as_xyz
  1  'x, y, z'
  2  '-x, -y, z'
  3  'x, -y, -z'
  4  '-x, y, -z'
  5  'z, x, y'
  6  'z, -x, -y'
  7  '-z, x, -y'
  8  '-z, -x, y'
  9  'y, z, x'
  10  '-y, z, -x'
  11  '-y, -z, x'
  12  'y, -z, -x'
  13  '-x+1/4, -y+1/4, -z+1/4'
  14  'x+1/4, y+1/4, -z+1/4'
  15  '-x+1/4, y+1/4, z+1/4'
  16  'x+1/4, -y+1/4, z+1/4'
  17  '-z+1/4, -x+1/4, -y+1/4'
  18  '-z+1/4, x+1/4, y+1/4'
  19  'z+1/4, -x+1/4, y+1/4'
  20  'z+1/4, x+1/4, -y+1/4'
  21  '-y+1/4, -z+1/4, -x+1/4'
  22  'y+1/4, -z+1/4, x+1/4'
  23  'y+1/4, z+1/4, -x+1/4'
  24  '-y+1/4, z+1/4, x+1/4'
  25  'x+1/2, y+1/2, z'
  26  '-x+1/2, -y+1/2, z'
  27  'x+1/2, -y+1/2, -z'
  28  '-x+1/2, y+1/2, -z'
  29  'z+1/2, x+1/2, y'
  30  'z+1/2, -x+1/2, -y'
  31  '-z+1/2, x+1/2, -y'
  32  '-z+1/2, -x+1/2, y'
  33  'y+1/2, z+1/2, x'
  34  '-y+1/2, z+1/2, -x'
  35  '-y+1/2, -z+1/2, x'
  36  'y+1/2, -z+1/2, -x'
  37  '-x+3/4, -y+3/4, -z+1/4'
  38  'x+3/4, y+3/4, -z+1/4'
  39  '-x+3/4, y+3/4, z+1/4'
  40  'x+3/4, -y+3/4, z+1/4'
  41  '-z+3/4, -x+3/4, -y+1/4'
  42  '-z+3/4, x+3/4, y+1/4'
  43  'z+3/4, -x+3/4, y+1/4'
  44  'z+3/4, x+3/4, -y+1/4'
  45  '-y+3/4, -z+3/4, -x+1/4'
  46  'y+3/4, -z+3/4, x+1/4'
  47  'y+3/4, z+3/4, -x+1/4'
  48  '-y+3/4, z+3/4, x+1/4'
  49  'x+1/2, y, z+1/2'
  50  '-x+1/2, -y, z+1/2'
  51  'x+1/2, -y, -z+1/2'
  52  '-x+1/2, y, -z+1/2'
  53  'z+1/2, x, y+1/2'
  54  'z+1/2, -x, -y+1/2'
  55  '-z+1/2, x, -y+1/2'
  56  '-z+1/2, -x, y+1/2'
  57  'y+1/2, z, x+1/2'
  58  '-y+1/2, z, -x+1/2'
  59  '-y+1/2, -z, x+1/2'
  60  'y+1/2, -z, -x+1/2'
  61  '-x+3/4, -y+1/4, -z+3/4'
  62  'x+3/4, y+1/4, -z+3/4'
  63  '-x+3/4, y+1/4, z+3/4'
  64  'x+3/4, -y+1/4, z+3/4'
  65  '-z+3/4, -x+1/4, -y+3/4'
  66  '-z+3/4, x+1/4, y+3/4'
  67  'z+3/4, -x+1/4, y+3/4'
  68  'z+3/4, x+1/4, -y+3/4'
  69  '-y+3/4, -z+1/4, -x+3/4'
  70  'y+3/4, -z+1/4, x+3/4'
  71  'y+3/4, z+1/4, -x+3/4'
  72  '-y+3/4, z+1/4, x+3/4'
  73  'x, y+1/2, z+1/2'
  74  '-x, -y+1/2, z+1/2'
  75  'x, -y+1/2, -z+1/2'
  76  '-x, y+1/2, -z+1/2'
  77  'z, x+1/2, y+1/2'
  78  'z, -x+1/2, -y+1/2'
  79  '-z, x+1/2, -y+1/2'
  80  '-z, -x+1/2, y+1/2'
  81  'y, z+1/2, x+1/2'
  82  '-y, z+1/2, -x+1/2'
  83  '-y, -z+1/2, x+1/2'
  84  'y, -z+1/2, -x+1/2'
  85  '-x+1/4, -y+3/4, -z+3/4'
  86  'x+1/4, y+3/4, -z+3/4'
  87  '-x+1/4, y+3/4, z+3/4'
  88  'x+1/4, -y+3/4, z+3/4'
  89  '-z+1/4, -x+3/4, -y+3/4'
  90  '-z+1/4, x+3/4, y+3/4'
  91  'z+1/4, -x+3/4, y+3/4'
  92  'z+1/4, x+3/4, -y+3/4'
  93  '-y+1/4, -z+3/4, -x+3/4'
  94  'y+1/4, -z+3/4, x+3/4'
  95  'y+1/4, z+3/4, -x+3/4'
  96  '-y+1/4, z+3/4, x+3/4'
loop_
 _atom_type_symbol
 _atom_type_oxidation_number
  Na+  1.0
  Mg2+  2.0
  C4+  4.0
  S6+  6.0
  O2-  -2.0
loop_
 _atom_site_type_symbol
 _atom_site_label
 _atom_site_symmetry_multiplicity
 _atom_site_fract_x
 _atom_site_fract_y
 _atom_site_fract_z
 _atom_site_occupancy
  Na+  Na0  48  0.00000000  0.00000000  0.21805400  1
  Mg2+  Mg1  16  0.12500000  0.12500000  0.62500000  1
  C4+  C2  32  0.09272933  0.09272933  0.40727067  1
  S6+  S3  8  0.00000000  0.00000000  0.00000000  1
  O2-  O4  96  0.02184550  0.15004550  0.39204400  1
  O2-  O5  32  0.06154467  0.06154467  0.06154467  1
