# generated using pymatgen
data_CeSe2
_symmetry_space_group_name_H-M   'P 1'
_cell_length_a   14.34120651
_cell_length_b   14.34120651
_cell_length_c   14.34120651
_cell_angle_alpha   109.47121953
_cell_angle_beta   109.47122119
_cell_angle_gamma   109.47122119
_symmetry_Int_Tables_number   1
_chemical_formula_structural   CeSe2
_chemical_formula_sum   'Ce12 Se24'
_cell_volume   2270.57147614
_cell_formula_units_Z   12
loop_
 _symmetry_equiv_pos_site_id
 _symmetry_equiv_pos_as_xyz
  1  'x, y, z'
loop_
 _atom_site_type_symbol
 _atom_site_label
 _atom_site_symmetry_multiplicity
 _atom_site_fract_x
 _atom_site_fract_y
 _atom_site_fract_z
 _atom_site_occupancy
  Ce  Ce0  1  0.27593394  0.13796697  0.63796697  1
  Ce  Ce1  1  0.86203303  0.72406606  0.36203303  1
  Ce  Ce2  1  0.86203303  0.13796697  0.50000000  1
  Ce  Ce3  1  0.50000000  0.63796697  0.36203303  1
  Ce  Ce4  1  0.36203303  0.50000000  0.63796697  1
  Ce  Ce5  1  0.63796697  0.36203303  0.50000000  1
  Ce  Ce6  1  0.50000000  0.86203303  0.13796697  1
  Ce  Ce7  1  0.63796697  0.27593394  0.13796697  1
  Ce  Ce8  1  0.36203303  0.86203303  0.72406606  1
  Ce  Ce9  1  0.72406606  0.36203303  0.86203303  1
  Ce  Ce10  1  0.13796697  0.50000000  0.86203303  1
  Ce  Ce11  1  0.13796697  0.63796697  0.27593394  1
  Se  Se12  1  0.37886007  0.37886007  0.75772013  1
  Se  Se13  1  0.00000000  0.62113993  0.37886007  1
  Se  Se14  1  0.62113993  -0.00000000  0.37886007  1
  Se  Se15  1  0.62113993  0.62113993  0.24227987  1
  Se  Se16  1  0.37886007  0.00000000  0.62113993  1
  Se  Se17  1  0.00000000  0.37886007  0.62113993  1
  Se  Se18  1  0.24227987  0.62113993  0.62113993  1
  Se  Se19  1  0.62113993  0.24227987  0.62113993  1
  Se  Se20  1  0.37886007  0.75772013  0.37886007  1
  Se  Se21  1  0.75772013  0.37886007  0.37886007  1
  Se  Se22  1  0.37886007  0.62113993  0.00000000  1
  Se  Se23  1  0.62113993  0.37886007  -0.00000000  1
  Se  Se24  1  0.08373353  0.16746706  0.58373353  1
  Se  Se25  1  0.08373353  0.91626647  0.50000000  1
  Se  Se26  1  0.83253294  0.91626647  0.41626647  1
  Se  Se27  1  0.58373353  0.50000000  0.41626647  1
  Se  Se28  1  0.41626647  0.58373353  0.50000000  1
  Se  Se29  1  0.50000000  0.41626647  0.58373353  1
  Se  Se30  1  0.41626647  0.83253294  0.91626647  1
  Se  Se31  1  0.58373353  0.08373353  0.16746706  1
  Se  Se32  1  0.50000000  0.08373353  0.91626647  1
  Se  Se33  1  0.91626647  0.50000000  0.08373353  1
  Se  Se34  1  0.91626647  0.41626647  0.83253294  1
  Se  Se35  1  0.16746706  0.58373353  0.08373353  1
