# generated using pymatgen
data_K3MgNbO8
_symmetry_space_group_name_H-M   'P 1'
_cell_length_a   6.98220861
_cell_length_b   6.98220887
_cell_length_c   6.98220843
_cell_angle_alpha   82.30820980
_cell_angle_beta   120.57462712
_cell_angle_gamma   128.69569430
_symmetry_Int_Tables_number   1
_chemical_formula_structural   K3MgNbO8
_chemical_formula_sum   'K3 Mg1 Nb1 O8'
_cell_volume   219.97340872
_cell_formula_units_Z   1
loop_
 _symmetry_equiv_pos_site_id
 _symmetry_equiv_pos_as_xyz
  1  'x, y, z'
loop_
 _atom_site_type_symbol
 _atom_site_label
 _atom_site_symmetry_multiplicity
 _atom_site_fract_x
 _atom_site_fract_y
 _atom_site_fract_z
 _atom_site_occupancy
  K  K0  1  0.50000000  0.17879194  0.67879194  1
  K  K1  1  0.50000000  0.82120806  0.32120806  1
  K  K2  1  -0.00000000  0.50000000  0.50000000  1
  Mg  Mg3  1  0.50000000  0.50000000  -0.00000000  1
  Nb  Nb4  1  -0.00000000  -0.00000000  -0.00000000  1
  O  O5  1  0.54250146  0.73269423  0.78116391  1
  O  O6  1  0.04846967  0.26730577  0.80980723  1
  O  O7  1  0.95153033  0.76133756  0.21883609  1
  O  O8  1  0.45749854  0.23866244  0.19019277  1
  O  O9  1  0.29249368  0.31515946  0.27509097  1
  O  O10  1  0.95993151  0.68484054  0.97733423  1
  O  O11  1  0.04006849  0.01740271  0.72490903  1
  O  O12  1  0.70750632  0.98259729  0.02266577  1
