# generated using pymatgen
data_La4As2(S2O)3
_symmetry_space_group_name_H-M   Iba2
_cell_length_a   12.15418400
_cell_length_b   19.20313600
_cell_length_c   5.90701600
_cell_angle_alpha   90.00000000
_cell_angle_beta   90.00000000
_cell_angle_gamma   90.00000000
_symmetry_Int_Tables_number   45
_chemical_formula_structural   La4As2(S2O)3
_chemical_formula_sum   'La16 As8 S24 O12'
_cell_volume   1378.68836861
_cell_formula_units_Z   4
loop_
 _symmetry_equiv_pos_site_id
 _symmetry_equiv_pos_as_xyz
  1  'x, y, z'
  2  '-x, -y, z'
  3  '-x, y, z+1/2'
  4  'x, -y, z+1/2'
  5  'x+1/2, y+1/2, z+1/2'
  6  '-x+1/2, -y+1/2, z+1/2'
  7  '-x+1/2, y+1/2, z'
  8  'x+1/2, -y+1/2, z'
loop_
 _atom_type_symbol
 _atom_type_oxidation_number
  La3+  3.0
  As3+  3.0
  S2-  -2.0
  O2-  -2.0
loop_
 _atom_site_type_symbol
 _atom_site_label
 _atom_site_symmetry_multiplicity
 _atom_site_fract_x
 _atom_site_fract_y
 _atom_site_fract_z
 _atom_site_occupancy
  La3+  La0  8  0.10096650  0.42553850  0.49774950  1
  La3+  La1  8  0.10784450  0.27850450  0.99802850  1
  As3+  As2  8  0.12422150  0.10483650  0.61633950  1
  S2-  S3  8  0.13194550  0.22092950  0.50390050  1
  S2-  S4  8  0.15859800  0.12315100  0.98661100  1
  S2-  S5  8  0.20207700  0.42431800  0.00176600  1
  O2-  O6  8  0.00004050  0.34369250  0.25335350  1
  O2-  O7  4  0.00000000  0.50000000  0.25450100  1
