# generated using pymatgen
data_CeSe2
_symmetry_space_group_name_H-M   'P 1'
_cell_length_a   6.07439763
_cell_length_b   15.59084388
_cell_length_c   15.74277425
_cell_angle_alpha   90.00000000
_cell_angle_beta   90.00000000
_cell_angle_gamma   90.00000000
_symmetry_Int_Tables_number   1
_chemical_formula_structural   CeSe2
_chemical_formula_sum   'Ce8 Se16'
_cell_volume   1490.91920101
_cell_formula_units_Z   8
loop_
 _symmetry_equiv_pos_site_id
 _symmetry_equiv_pos_as_xyz
  1  'x, y, z'
loop_
 _atom_site_type_symbol
 _atom_site_label
 _atom_site_symmetry_multiplicity
 _atom_site_fract_x
 _atom_site_fract_y
 _atom_site_fract_z
 _atom_site_occupancy
  Ce  Ce0  1  0.33169971  0.65872797  0.38312933  1
  Ce  Ce1  1  0.33169971  0.34127203  0.61687067  1
  Ce  Ce2  1  0.66830029  0.84127203  0.11687067  1
  Ce  Ce3  1  0.66830029  0.15872797  0.88312933  1
  Ce  Ce4  1  0.66830029  0.65872797  0.61687067  1
  Ce  Ce5  1  0.66830029  0.34127203  0.38312933  1
  Ce  Ce6  1  0.33169971  0.84127203  0.88312933  1
  Ce  Ce7  1  0.33169971  0.15872797  0.11687067  1
  Se  Se8  1  0.00000000  0.86542701  0.00000000  1
  Se  Se9  1  0.00000000  0.13457299  0.00000000  1
  Se  Se10  1  0.00000000  0.63457299  0.50000000  1
  Se  Se11  1  0.00000000  0.36542701  0.50000000  1
  Se  Se12  1  0.50000000  0.73183648  0.00000000  1
  Se  Se13  1  0.50000000  0.26816352  0.00000000  1
  Se  Se14  1  0.50000000  0.76816352  0.50000000  1
  Se  Se15  1  0.50000000  0.23183648  0.50000000  1
  Se  Se16  1  0.50000000  -0.00000000  0.84993339  1
  Se  Se17  1  0.50000000  -0.00000000  0.15006661  1
  Se  Se18  1  0.50000000  0.50000000  0.65006661  1
  Se  Se19  1  0.50000000  0.50000000  0.34993339  1
  Se  Se20  1  0.50000000  0.75000000  0.25000000  1
  Se  Se21  1  0.50000000  0.25000000  0.75000000  1
  Se  Se22  1  0.50000000  0.75000000  0.75000000  1
  Se  Se23  1  0.50000000  0.25000000  0.25000000  1
