# generated using pymatgen
data_Co(SbO2)2
_symmetry_space_group_name_H-M   'P 1'
_cell_length_a   5.92019487
_cell_length_b   8.49853432
_cell_length_c   8.49763496
_cell_angle_alpha   90.00088532
_cell_angle_beta   90.00007344
_cell_angle_gamma   90.00030609
_symmetry_Int_Tables_number   1
_chemical_formula_structural   Co(SbO2)2
_chemical_formula_sum   'Co4 Sb8 O16'
_cell_volume   427.54133168
_cell_formula_units_Z   4
loop_
 _symmetry_equiv_pos_site_id
 _symmetry_equiv_pos_as_xyz
  1  'x, y, z'
loop_
 _atom_site_type_symbol
 _atom_site_label
 _atom_site_symmetry_multiplicity
 _atom_site_fract_x
 _atom_site_fract_y
 _atom_site_fract_z
 _atom_site_occupancy
  Co  Co0  1  0.25617412  0.49999506  0.00000166  1
  Co  Co1  1  0.74383743  0.49999769  0.99999327  1
  Co  Co2  1  0.75615643  0.99999356  0.50001314  1
  Co  Co3  1  0.24384330  -0.00000318  0.50000663  1
  Sb  Sb4  1  0.49999773  0.33529763  0.33035657  1
  Sb  Sb5  1  0.00000551  0.33032957  0.66464838  1
  Sb  Sb6  1  0.50002009  0.16370655  0.82263282  1
  Sb  Sb7  1  0.00001526  0.82258968  0.83634720  1
  Sb  Sb8  1  0.50000871  0.66469465  0.66964289  1
  Sb  Sb9  1  -0.00002782  0.66968830  0.33535886  1
  Sb  Sb10  1  0.49997305  0.83629585  0.17736975  1
  Sb  Sb11  1  -0.00001314  0.17740409  0.16364208  1
  O  O12  1  0.49999798  0.86115704  0.40523290  1
  O  O13  1  -0.00000356  0.40523044  0.13882000  1
  O  O14  1  0.50000620  0.63933932  0.89840800  1
  O  O15  1  0.99999722  0.89842960  0.36067855  1
  O  O16  1  0.49999790  0.13882501  0.59475771  1
  O  O17  1  0.00000842  0.59476306  0.86116031  1
  O  O18  1  0.50001345  0.36066225  0.10160342  1
  O  O19  1  0.00000566  0.10158236  0.63934180  1
  O  O20  1  0.74784004  0.32378499  0.82141562  1
  O  O21  1  0.24782565  0.82143868  0.67622631  1
  O  O22  1  0.75219029  0.17856204  0.32377315  1
  O  O23  1  0.25217781  0.32378371  0.82142904  1
  O  O24  1  0.75218648  0.82143634  0.67622489  1
  O  O25  1  0.24780876  0.17856455  0.32376339  1
  O  O26  1  0.25214010  0.67621818  0.17858290  1
  O  O27  1  0.74781595  0.67623300  0.17856974  1
