# generated using pymatgen
data_CsSbSI2
_symmetry_space_group_name_H-M   P4_222
_cell_length_a   12.02727200
_cell_length_b   12.02727200
_cell_length_c   11.42494600
_cell_angle_alpha   90.00000000
_cell_angle_beta   90.00000000
_cell_angle_gamma   90.00000000
_symmetry_Int_Tables_number   93
_chemical_formula_structural   CsSbSI2
_chemical_formula_sum   'Cs8 Sb8 S8 I16'
_cell_volume   1652.67866850
_cell_formula_units_Z   8
loop_
 _symmetry_equiv_pos_site_id
 _symmetry_equiv_pos_as_xyz
  1  'x, y, z'
  2  '-y, x, z+1/2'
  3  '-x, -y, z'
  4  'y, -x, z+1/2'
  5  'x, -y, -z'
  6  '-y, -x, -z+1/2'
  7  '-x, y, -z'
  8  'y, x, -z+1/2'
loop_
 _atom_type_symbol
 _atom_type_oxidation_number
  Cs+  1.0
  Sb3+  3.0
  S2-  -2.0
  I-  -1.0
loop_
 _atom_site_type_symbol
 _atom_site_label
 _atom_site_symmetry_multiplicity
 _atom_site_fract_x
 _atom_site_fract_y
 _atom_site_fract_z
 _atom_site_occupancy
  Cs+  Cs0  4  0.00000000  0.50000000  0.26801500  1
  Cs+  Cs1  2  0.00000000  0.00000000  0.25000000  1
  Cs+  Cs2  2  0.50000000  0.50000000  0.25000000  1
  Sb3+  Sb3  8  0.25526300  0.29421100  0.97000500  1
  S2-  S4  4  0.25874700  0.25874700  0.75000000  1
  S2-  S5  4  0.29218000  0.50000000  0.00000000  1
  I-  I6  4  0.00000000  0.23672300  0.50000000  1
  I-  I7  4  0.00000000  0.29256600  0.00000000  1
  I-  I8  4  0.23723300  0.50000000  0.50000000  1
  I-  I9  4  0.25109500  0.25109500  0.25000000  1
